*

.subckt BSPD


.model __D1 D
U3 __U3
RV3 __RV3
RV1 __RV1
RV2 __RV2
J1 __J1
U1 __U1
U2 __U2
U4 __U4
RV4 __RV4
U5 __U5
C1 Net-_Q1-C_ GND C
R7 Net-_R7-Pad1_ Net-_Q3-B_ R
R3 Net-_U6A-+_ GND R
U6 __U6
Q1 __Q1
R1 Net-_R1-Pad1_ Net-_Q1-C_ R
R2 VCC Net-_U6A-+_ R
R5 VCC Net-_U6B-+_ R
Q3 __Q3
R4 Net-_Q3-E_ GND R
C2 Net-_Q3-E_ GND C
R6 Net-_U6B-+_ GND R
R8 Net-_R8-Pad1_ Net-_Q2-B_ R
D1 Net-_D1-A_ VCC __D1
K1 __K1
Q2 __Q2

.ends
