Version 4
SHEET 1 1460 680
WIRE 496 -144 -112 -144
WIRE 800 -144 496 -144
WIRE 160 -80 80 -80
WIRE 80 -64 80 -80
WIRE 400 -64 256 -64
WIRE 496 -64 496 -144
WIRE 608 -64 496 -64
WIRE 368 0 176 0
WIRE 400 16 400 -64
WIRE 496 16 400 16
WIRE -112 32 -112 -144
WIRE 496 32 496 16
WIRE 368 48 368 0
WIRE 368 48 336 48
WIRE 80 64 80 16
WIRE 176 64 176 0
WIRE 176 64 80 64
WIRE 256 64 256 -64
WIRE 272 64 256 64
WIRE 80 80 80 64
WIRE 432 80 336 80
WIRE 464 80 432 80
WIRE 800 80 800 -144
WIRE 960 80 800 80
WIRE 1120 80 960 80
WIRE 240 96 240 -80
WIRE 240 96 224 96
WIRE 272 96 240 96
WIRE 384 112 336 112
WIRE 432 112 432 80
WIRE 880 144 800 144
WIRE -112 176 -112 112
WIRE 80 176 80 144
WIRE 80 176 -112 176
WIRE 160 176 80 176
WIRE 224 176 224 96
WIRE 224 176 160 176
WIRE 384 192 384 112
WIRE 432 192 384 192
WIRE 608 192 608 -64
WIRE 608 192 432 192
WIRE 464 224 464 80
WIRE 752 224 464 224
WIRE 1120 224 1120 80
WIRE 1392 224 1120 224
WIRE 1120 256 1120 224
WIRE 1120 256 1056 256
WIRE 160 272 160 176
WIRE 496 272 496 112
WIRE 496 272 160 272
WIRE 800 304 800 240
WIRE 960 304 960 80
WIRE 960 304 800 304
WIRE 1120 320 1120 256
WIRE 1168 320 1120 320
WIRE 1312 336 1232 336
WIRE 1056 352 1056 336
WIRE 1168 352 1056 352
WIRE 1392 368 1392 304
WIRE 1392 368 1232 368
WIRE 880 384 880 144
WIRE 880 384 800 384
WIRE 960 384 880 384
WIRE 1168 384 960 384
WIRE 1392 416 1392 368
WIRE 880 464 800 464
WIRE 960 464 960 448
WIRE 960 464 880 464
WIRE 1312 512 1312 336
WIRE 1392 512 1392 496
WIRE 1392 512 1312 512
WIRE 1392 560 1392 512
FLAG 80 176 0
FLAG 880 464 0
FLAG 1392 560 0
DATAFLAG 608 240 ""
DATAFLAG 816 304 ""
DATAFLAG 864 144 ""
DATAFLAG 128 64 ""
SYMBOL LMX393 304 80 R0
SYMATTR InstName U1
SYMBOL res 64 -80 R0
SYMATTR InstName R1
SYMATTR Value 10k
SYMBOL cap 64 80 R0
SYMATTR InstName C1
SYMATTR Value 47µ
SYMBOL voltage -112 16 R0
WINDOW 123 0 0 Left 0
WINDOW 39 24 124 Left 2
SYMATTR SpiceLine Rser=0.01
SYMATTR InstName V1
SYMATTR Value 5v
SYMBOL res 480 -80 R0
SYMATTR InstName R2
SYMATTR Value 300
SYMBOL res 480 16 R0
SYMATTR InstName R3
SYMATTR Value 700
SYMBOL res 416 96 R0
SYMATTR InstName R4
SYMATTR Value 1k
SYMBOL voltage 144 -80 R270
WINDOW 0 32 56 VTop 2
WINDOW 3 -32 56 VBottom 2
WINDOW 123 0 0 Left 0
WINDOW 39 0 0 Left 0
SYMATTR InstName V2
SYMATTR Value PULSE(0 5 0 0 0 2)
SYMBOL Contrib\\Toshiba\\lvmos\\SSM6J215FE_G0_00 752 144 R0
SYMATTR InstName U2
SYMBOL res 784 368 R0
SYMATTR InstName R5
SYMATTR Value 100k
SYMBOL cap 944 384 R0
SYMATTR InstName C2
SYMATTR Value 47µ
SYMBOL LMX393 1200 352 R180
SYMATTR InstName U3
SYMBOL res 1040 240 R0
SYMATTR InstName R6
SYMATTR Value 1k
SYMBOL res 1376 208 R0
SYMATTR InstName R7
SYMATTR Value 904
SYMBOL res 1376 400 R0
SYMATTR InstName R8
SYMATTR Value 96
TEXT -144 208 Left 2 !.tran 15s
